                                   MODFLOW 6
                U.S. GEOLOGICAL SURVEY MODULAR HYDROLOGIC MODEL
                          GROUNDWATER FLOW MODEL (GWF)
                        VERSION 6.4.1 Release 12/09/2022

         MODFLOW 6 compiled Apr 16 2023 18:27:14 with GCC version 9.4.0

This software has been approved for release by the U.S. Geological 
Survey (USGS). Although the software has been subjected to rigorous 
review, the USGS reserves the right to update the software as needed 
pursuant to further analysis and review. No warranty, expressed or 
implied, is made by the USGS or the U.S. Government as to the 
functionality of the software and related material nor shall the 
fact of release constitute any such warranty. Furthermore, the 
software is released on condition that neither the USGS nor the U.S. 
Government shall be held liable for any damages resulting from its 
authorized or unauthorized use. Also refer to the USGS Water 
Resources Software User Rights Notice for complete use, copyright, 
and distribution information.


As a work of the United States Government, this USGS product is 
in the public domain within the United States. You can copy, 
modify, distribute, and perform the work, even for commercial 
purposes, all without asking permission. Additionally, USGS 
waives copyright and related rights in the work worldwide 
through CC0 1.0 Universal Public Domain Dedication 
(https://creativecommons.org/publicdomain/zero/1.0/).

The following GNU Lesser General Public License (LGPL) libraries
are used in this USGS product:

    SPARSKIT version 2.0
      ilut, luson, and qsplit 
      (https://www-users.cse.umn.edu/~saad/software/SPARSKIT/)

    RCM - Reverse Cuthill McKee Ordering
      (https://people.math.sc.edu/Burkardt/f_src/rcm/rcm.html)

    BLAS - Basic Linear Algebra Subprograms Level 1
      (https://people.math.sc.edu/Burkardt/f_src/blas1_d/blas1_d.html)

    SPARSEKIT - Sparse Matrix Utility Package
      amux, dperm, dvperm, rperm, and cperm
      (https://people.sc.fsu.edu/~jburkardt/f77_src/sparsekit/sparsekit.html)

The following BSD-3 License libraries are used in this USGS product:

    Modern Fortran DAG Library
      Copyright (c) 2018, Jacob Williams
      All rights reserved.
      (https://github.com/jacobwilliams/daglib)

MODFLOW 6 compiler options: -cpp -I obj_temp -imultiarch aarch64-linux-gnu -D
__LINUX__ -mlittle-endian -mabi=lp64 -auxbase-strip
obj_temp/compilerversion.o -O2 -Wtabs -Wline-truncation -Wunused-label
-Wunused-variable -Wpedantic -Wcharacter-truncation -std=f2008 -fbacktrace
-ffpe-summary=overflow -ffpe-trap=overflow,zero,invalid -fall-intrinsics -J
mod_temp -fpre-include=/usr/include/finclude/math-vector-fortran.h

System command used to initiate simulation:
/home/sensei/ce-4363-webroot/ModflowExperimental/mf6-arm/mf6

MODFLOW was compiled using uniform precision.

Real Variables
  KIND: 8
  TINY (smallest non-zero value):    2.225074-308
  HUGE (largest value):    1.797693+308
  PRECISION: 15
  SIZE IN BITS: 64

Integer Variables
  KIND: 4
  HUGE (largest value): 2147483647
  SIZE IN BITS: 32

Long Integer Variables
  KIND: 8
  HUGE (largest value): 9223372036854775807
  SIZE IN BITS: 64

Logical Variables
  KIND: 4
  SIZE IN BITS: 32


 OPENED project1-1_mf6.dis
 FILE TYPE:DIS6                   UNIT 1005   STATUS:OLD                 
 FORMAT:FORMATTED              ACCESS:SEQUENTIAL          
 ACTION:READ                


 OPENED project1-1_mf6.ic
 FILE TYPE:IC6                    UNIT 1006   STATUS:OLD                 
 FORMAT:FORMATTED              ACCESS:SEQUENTIAL          
 ACTION:READ                


 OPENED project1-1_mf6.npf
 FILE TYPE:NPF6                   UNIT 1007   STATUS:OLD                 
 FORMAT:FORMATTED              ACCESS:SEQUENTIAL          
 ACTION:READ                


 OPENED project1-1_mf6.chd
 FILE TYPE:CHD6                   UNIT 1008   STATUS:OLD                 
 FORMAT:FORMATTED              ACCESS:SEQUENTIAL          
 ACTION:READ                


 OPENED project1-1_mf6.wel
 FILE TYPE:WEL6                   UNIT 1009   STATUS:OLD                 
 FORMAT:FORMATTED              ACCESS:SEQUENTIAL          
 ACTION:READ                


 OPENED project1-1_mf6.rcha
 FILE TYPE:RCH6                   UNIT 1010   STATUS:OLD                 
 FORMAT:FORMATTED              ACCESS:SEQUENTIAL          
 ACTION:READ                


 OPENED project1-1_mf6.oc
 FILE TYPE:OC6                    UNIT 1011   STATUS:OLD                 
 FORMAT:FORMATTED              ACCESS:SEQUENTIAL          
 ACTION:READ                


 DIS -- STRUCTURED GRID DISCRETIZATION PACKAGE, VERSION 2 : 3/27/2014 - INPUT READ FROM UNIT 1005

 Loading input for PROJECT1-1_MF6/DIS
 # File generated by Flopy version 3.3.6 on 04/16/2023 at 21:10:42.
   NLAY = 5
   NROW = 24
   NCOL = 10
   DELR = 1000.0000000000000
   DELC = 1000.0000000000000
   TOP = 0.0000000000000000
   BOTM = variable 3D double precision array ranging from -175.00000000000000 to -50.000000000000000
 Loading input complete...


 NPF -- NODE PROPERTY FLOW PACKAGE, VERSION 1, 3/30/2015 INPUT READ FROM UNIT 1007

 Loading input for PROJECT1-1_MF6/NPF
 # File generated by Flopy version 3.3.6 on 04/16/2023 at 21:10:42.
   IPAKCB = 1
   ICELLTYPE = 1
   K = 7300.0000000000000
 Loading input complete...

 Setting Discretization Options
 End Setting Discretization Options

 Setting Discretization Dimensions
    NLAY = 5
    NROW = 24
    NCOL = 10
 End Setting Discretization Dimensions

 Setting Discretization Griddata
    DELR set from input file
    DELC set from input file
    TOP set from input file
    BOTM set from input file
 End Setting Discretization Griddata

 Setting NPF Options
    Cell-by-cell flow information will be saved to binary file whenever ICBCFL is not zero.
 End Setting NPF Options

 Setting NPF Griddata
    ICELLTYPE set from input file
    K set from input file
    K33 not provided.  Setting K33 = K.
    K22 not provided.  Setting K22 = K.
 End Setting NPF Griddata


 WEL   -- WEL PACKAGE, VERSION 8, 2/22/2014 INPUT READ FROM UNIT 1009
 # File generated by Flopy version 3.3.6 on 04/16/2023 at 21:10:42.

 PROCESSING WEL OPTIONS
 END OF WEL OPTIONS

 PROCESSING WEL DIMENSIONS
    MAXBOUND =       6
 END OF WEL DIMENSIONS

 RCH   -- RCH PACKAGE, VERSION 8, 2/22/2014 INPUT READ FROM UNIT 1010
 # File generated by Flopy version 3.3.6 on 04/16/2023 at 21:10:42.

 PROCESSING RCH OPTIONS
    RECHARGE INPUT WILL BE READ AS ARRAY(S).
 END OF RCHA OPTIONS

 CHD   -- CHD PACKAGE, VERSION 8, 2/22/2014 INPUT READ FROM UNIT 1008
 # File generated by Flopy version 3.3.6 on 04/16/2023 at 21:10:42.

 PROCESSING CHD OPTIONS
    FLOWS WILL BE SAVED TO BUDGET FILE SPECIFIED IN OUTPUT CONTROL
 END OF CHD OPTIONS

 PROCESSING CHD DIMENSIONS
    MAXBOUND =      10
 END OF CHD DIMENSIONS

 IC -- INITIAL CONDITIONS PACKAGE, VERSION 8, 3/28/2015 INPUT READ FROM UNIT 1006
 # File generated by Flopy version 3.3.6 on 04/16/2023 at 21:10:42.
 PROCESSING GRIDDATA
 END PROCESSING GRIDDATA
    BINARY GRID INFORMATION WILL BE WRITTEN TO:
      UNIT NUMBER: 1013
      FILE NAME: project1-1_mf6.dis.grb

 OPENED project1-1_mf6.dis.grb
 FILE TYPE:DATA(BINARY)   UNIT 1013   STATUS:REPLACE             
 FORMAT:UNFORMATTED            ACCESS:STREAM              
 ACTION:READWRITE           

      THE LAST TIME STEP WILL BE PRINTED
      THE LAST TIME STEP WILL BE PRINTED
 # File generated by Flopy version 3.3.6 on 04/16/2023 at 21:10:42.

 PROCESSING OC OPTIONS

    BUDGET INFORMATION WILL BE WRITTEN TO:
      UNIT NUMBER: 1014
      FILE NAME: project1-1_mf6.cbb

 OPENED project1-1_mf6.cbb
 FILE TYPE:DATA(BINARY)   UNIT 1014   STATUS:REPLACE             
 FORMAT:UNFORMATTED            ACCESS:STREAM              
 ACTION:READWRITE           

    HEAD INFORMATION WILL BE WRITTEN TO:
      UNIT NUMBER: 1015
      FILE NAME: project1-1_mf6.hds

 OPENED project1-1_mf6.hds
 FILE TYPE:DATA(BINARY)   UNIT 1015   STATUS:REPLACE             
 FORMAT:UNFORMATTED            ACCESS:STREAM              
 ACTION:READWRITE           

 END OF OC OPTIONS

start timestep kper="1" kstp="1" mode="normal"


 BEGIN READING OUTPUT CONTROL FOR STRESS PERIOD 1
      ALL TIME STEPS WILL BE SAVED
      ALL TIME STEPS WILL BE SAVED
      THE LAST TIME STEP WILL BE PRINTED

 END READING OUTPUT CONTROL FOR STRESS PERIOD 1

                 RECHARGE =  0.2500000    
 UBDSV1 SAVING     FLOW-JA-FACE ON UNIT   1014 AT TIME STEP      1, STRESS PERIOD      1
 UBDSV06 SAVING              CHD IN MODEL PROJECT1-1_MF6   PACKAGE PROJECT1-1_MF6  CONNECTED TO MODEL PROJECT1-1_MF6   PACKAGE CHD_0            ON UNIT   1014 AT TIME STEP      1, STRESS PERIOD      1
1
  HEAD IN LAYER   1 AT END OF TIME STEP   1 IN STRESS PERIOD    1
  ---------------------------------------------------------------------------

            1           2           3           4           5           6           7           8           9          10
 ........................................................................................................................
   1   -16.96      -16.96      -16.96      -16.96      -16.96      -16.96      -16.96      -16.96      -16.96      -16.96    
   2   -17.17      -17.17      -17.17      -17.17      -17.17      -17.17      -17.17      -17.17      -17.17      -17.17    
   3   -17.61      -17.61      -17.61      -17.61      -17.61      -17.61      -17.61      -17.61      -17.61      -17.61    
   4   -18.26      -18.26      -18.26      -18.26      -18.26      -18.26      -18.26      -18.26      -18.26      -18.26    
   5   -19.14      -19.14      -19.14      -19.14      -19.14      -19.14      -19.14      -19.14      -19.14      -19.14    
   6   -20.24      -20.24      -20.24      -20.24      -20.24      -20.24      -20.24      -20.24      -20.24      -20.24    
   7   -21.57      -21.57      -21.57      -21.57      -21.57      -21.57      -21.57      -21.57      -21.57      -21.57    
   8   -23.15      -23.15      -23.15      -23.15      -23.15      -23.15      -23.15      -23.15      -23.15      -23.15    
   9   -25.00      -25.00      -25.00      -25.00      -25.00      -25.00      -25.00      -25.00      -25.00      -25.00    
  10   -21.57      -21.57      -21.57      -21.57      -21.57      -21.57      -21.57      -21.57      -21.57      -21.57    
  11   -18.48      -18.48      -18.48      -18.48      -18.48      -18.48      -18.48      -18.48      -18.48      -18.48    
  12   -15.66      -15.66      -15.66      -15.66      -15.66      -15.66      -15.66      -15.66      -15.66      -15.66    
  13   -13.10      -13.10      -13.10      -13.10      -13.10      -13.10      -13.10      -13.10      -13.10      -13.10    
  14   -10.79      -10.79      -10.79      -10.79      -10.79      -10.79      -10.79      -10.79      -10.79      -10.79    
  15   -8.715      -8.715      -8.715      -8.715      -8.715      -8.715      -8.715      -8.715      -8.715      -8.715    
  16   -6.871      -6.871      -6.871      -6.871      -6.871      -6.871      -6.871      -6.871      -6.871      -6.871    
  17   -5.249      -5.249      -5.249      -5.249      -5.249      -5.249      -5.249      -5.249      -5.249      -5.249    
  18   -3.843      -3.843      -3.843      -3.843      -3.843      -3.843      -3.843      -3.843      -3.843      -3.843    
  19   -2.647      -2.647      -2.647      -2.647      -2.647      -2.647      -2.647      -2.647      -2.647      -2.647    
  20   -1.656      -1.656      -1.656      -1.656      -1.656      -1.656      -1.656      -1.656      -1.656      -1.656    
  21  -0.8675     -0.8675     -0.8675     -0.8675     -0.8675     -0.8675     -0.8675     -0.8675     -0.8675     -0.8675    
  22  -0.2785     -0.2785     -0.2785     -0.2785     -0.2785     -0.2785     -0.2785     -0.2785     -0.2785     -0.2785    
  23   0.1132      0.1132      0.1132      0.1132      0.1132      0.1132      0.1132      0.1132      0.1132      0.1132    
  24   0.3089      0.3089      0.3089      0.3089      0.3089      0.3089      0.3089      0.3089      0.3089      0.3089    
1
  HEAD IN LAYER   2 AT END OF TIME STEP   1 IN STRESS PERIOD    1
  ---------------------------------------------------------------------------

            1           2           3           4           5           6           7           8           9          10
 ........................................................................................................................
   1   -16.96      -16.96      -16.96      -16.96      -16.96      -16.96      -16.96      -16.96      -16.96      -16.96    
   2   -17.17      -17.17      -17.17      -17.17      -17.17      -17.17      -17.17      -17.17      -17.17      -17.17    
   3   -17.61      -17.61      -17.61      -17.61      -17.61      -17.61      -17.61      -17.61      -17.61      -17.61    
   4   -18.26      -18.26      -18.26      -18.26      -18.26      -18.26      -18.26      -18.26      -18.26      -18.26    
   5   -19.14      -19.14      -19.14      -19.14      -19.14      -19.14      -19.14      -19.14      -19.14      -19.14    
   6   -20.24      -20.24      -20.24      -20.24      -20.24      -20.24      -20.24      -20.24      -20.24      -20.24    
   7   -21.58      -21.58      -21.58      -21.58      -21.58      -21.58      -21.58      -21.58      -21.58      -21.58    
   8   -23.15      -23.15      -23.15      -23.15      -23.15      -23.15      -23.15      -23.15      -23.15      -23.15    
   9   -24.97      -24.97      -24.97      -24.97      -24.97      -24.97      -24.97      -24.97      -24.97      -24.97    
  10   -21.57      -21.57      -21.57      -21.57      -21.57      -21.57      -21.57      -21.57      -21.57      -21.57    
  11   -18.48      -18.48      -18.48      -18.48      -18.48      -18.48      -18.48      -18.48      -18.48      -18.48    
  12   -15.66      -15.66      -15.66      -15.66      -15.66      -15.66      -15.66      -15.66      -15.66      -15.66    
  13   -13.10      -13.10      -13.10      -13.10      -13.10      -13.10      -13.10      -13.10      -13.10      -13.10    
  14   -10.79      -10.79      -10.79      -10.79      -10.79      -10.79      -10.79      -10.79      -10.79      -10.79    
  15   -8.716      -8.716      -8.716      -8.716      -8.716      -8.716      -8.716      -8.716      -8.716      -8.716    
  16   -6.873      -6.873      -6.873      -6.873      -6.873      -6.873      -6.873      -6.873      -6.873      -6.873    
  17   -5.251      -5.251      -5.251      -5.251      -5.251      -5.251      -5.251      -5.251      -5.251      -5.251    
  18   -3.844      -3.844      -3.844      -3.844      -3.844      -3.844      -3.844      -3.844      -3.844      -3.844    
  19   -2.648      -2.648      -2.648      -2.648      -2.648      -2.648      -2.648      -2.648      -2.648      -2.648    
  20   -1.657      -1.657      -1.657      -1.657      -1.657      -1.657      -1.657      -1.657      -1.657      -1.657    
  21  -0.8687     -0.8687     -0.8687     -0.8687     -0.8687     -0.8687     -0.8687     -0.8687     -0.8687     -0.8687    
  22  -0.2797     -0.2797     -0.2797     -0.2797     -0.2797     -0.2797     -0.2797     -0.2797     -0.2797     -0.2797    
  23   0.1120      0.1120      0.1120      0.1120      0.1120      0.1120      0.1120      0.1120      0.1120      0.1120    
  24   0.3077      0.3077      0.3077      0.3077      0.3077      0.3077      0.3077      0.3077      0.3077      0.3077    
1
  HEAD IN LAYER   3 AT END OF TIME STEP   1 IN STRESS PERIOD    1
  ---------------------------------------------------------------------------

            1           2           3           4           5           6           7           8           9          10
 ........................................................................................................................
   1   -16.96      -16.96      -16.96      -16.96      -16.96      -16.96      -16.96      -16.96      -16.96      -16.96    
   2   -17.18      -17.18      -17.18      -17.18      -17.18      -17.18      -17.18      -17.18      -17.18      -17.18    
   3   -17.61      -17.61      -17.61      -17.61      -17.61      -17.61      -17.61      -17.61      -17.61      -17.61    
   4   -18.26      -18.26      -18.26      -18.26      -18.26      -18.26      -18.26      -18.26      -18.26      -18.26    
   5   -19.14      -19.14      -19.14      -19.14      -19.14      -19.14      -19.14      -19.14      -19.14      -19.14    
   6   -20.24      -20.24      -20.24      -20.24      -20.24      -20.24      -20.24      -20.24      -20.24      -20.24    
   7   -21.58      -21.58      -21.58      -21.58      -21.58      -21.58      -21.58      -21.58      -21.58      -21.58    
   8   -23.15      -23.15      -23.15      -23.15      -23.15      -23.15      -23.15      -23.15      -23.15      -23.15    
   9   -24.96      -24.96      -24.96      -24.96      -24.96      -24.96      -24.96      -24.96      -24.96      -24.96    
  10   -21.57      -21.57      -21.57      -21.57      -21.57      -21.57      -21.57      -21.57      -21.57      -21.57    
  11   -18.48      -18.48      -18.48      -18.48      -18.48      -18.48      -18.48      -18.48      -18.48      -18.48    
  12   -15.66      -15.66      -15.66      -15.66      -15.66      -15.66      -15.66      -15.66      -15.66      -15.66    
  13   -13.10      -13.10      -13.10      -13.10      -13.10      -13.10      -13.10      -13.10      -13.10      -13.10    
  14   -10.79      -10.79      -10.79      -10.79      -10.79      -10.79      -10.79      -10.79      -10.79      -10.79    
  15   -8.717      -8.717      -8.717      -8.717      -8.717      -8.717      -8.717      -8.717      -8.717      -8.717    
  16   -6.873      -6.873      -6.873      -6.873      -6.873      -6.873      -6.873      -6.873      -6.873      -6.873    
  17   -5.251      -5.251      -5.251      -5.251      -5.251      -5.251      -5.251      -5.251      -5.251      -5.251    
  18   -3.845      -3.845      -3.845      -3.845      -3.845      -3.845      -3.845      -3.845      -3.845      -3.845    
  19   -2.648      -2.648      -2.648      -2.648      -2.648      -2.648      -2.648      -2.648      -2.648      -2.648    
  20   -1.658      -1.658      -1.658      -1.658      -1.658      -1.658      -1.658      -1.658      -1.658      -1.658    
  21  -0.8691     -0.8691     -0.8691     -0.8691     -0.8691     -0.8691     -0.8691     -0.8691     -0.8691     -0.8691    
  22  -0.2801     -0.2801     -0.2801     -0.2801     -0.2801     -0.2801     -0.2801     -0.2801     -0.2801     -0.2801    
  23   0.1117      0.1117      0.1117      0.1117      0.1117      0.1117      0.1117      0.1117      0.1117      0.1117    
  24   0.3073      0.3073      0.3073      0.3073      0.3073      0.3073      0.3073      0.3073      0.3073      0.3073    
1
  HEAD IN LAYER   4 AT END OF TIME STEP   1 IN STRESS PERIOD    1
  ---------------------------------------------------------------------------

            1           2           3           4           5           6           7           8           9          10
 ........................................................................................................................
   1   -16.96      -16.96      -16.96      -16.96      -16.96      -16.96      -16.96      -16.96      -16.96      -16.96    
   2   -17.18      -17.18      -17.18      -17.18      -17.18      -17.18      -17.18      -17.18      -17.18      -17.18    
   3   -17.61      -17.61      -17.61      -17.61      -17.61      -17.61      -17.61      -17.61      -17.61      -17.61    
   4   -18.26      -18.26      -18.26      -18.26      -18.26      -18.26      -18.26      -18.26      -18.26      -18.26    
   5   -19.14      -19.14      -19.14      -19.14      -19.14      -19.14      -19.14      -19.14      -19.14      -19.14    
   6   -20.24      -20.24      -20.24      -20.24      -20.24      -20.24      -20.24      -20.24      -20.24      -20.24    
   7   -21.58      -21.58      -21.58      -21.58      -21.58      -21.58      -21.58      -21.58      -21.58      -21.58    
   8   -23.15      -23.15      -23.15      -23.15      -23.15      -23.15      -23.15      -23.15      -23.15      -23.15    
   9   -24.95      -24.95      -24.95      -24.95      -24.95      -24.95      -24.95      -24.95      -24.95      -24.95    
  10   -21.58      -21.58      -21.58      -21.58      -21.58      -21.58      -21.58      -21.58      -21.58      -21.58    
  11   -18.48      -18.48      -18.48      -18.48      -18.48      -18.48      -18.48      -18.48      -18.48      -18.48    
  12   -15.66      -15.66      -15.66      -15.66      -15.66      -15.66      -15.66      -15.66      -15.66      -15.66    
  13   -13.10      -13.10      -13.10      -13.10      -13.10      -13.10      -13.10      -13.10      -13.10      -13.10    
  14   -10.79      -10.79      -10.79      -10.79      -10.79      -10.79      -10.79      -10.79      -10.79      -10.79    
  15   -8.717      -8.717      -8.717      -8.717      -8.717      -8.717      -8.717      -8.717      -8.717      -8.717    
  16   -6.873      -6.873      -6.873      -6.873      -6.873      -6.873      -6.873      -6.873      -6.873      -6.873    
  17   -5.252      -5.252      -5.252      -5.252      -5.252      -5.252      -5.252      -5.252      -5.252      -5.252    
  18   -3.845      -3.845      -3.845      -3.845      -3.845      -3.845      -3.845      -3.845      -3.845      -3.845    
  19   -2.649      -2.649      -2.649      -2.649      -2.649      -2.649      -2.649      -2.649      -2.649      -2.649    
  20   -1.658      -1.658      -1.658      -1.658      -1.658      -1.658      -1.658      -1.658      -1.658      -1.658    
  21  -0.8695     -0.8695     -0.8695     -0.8695     -0.8695     -0.8695     -0.8695     -0.8695     -0.8695     -0.8695    
  22  -0.2805     -0.2805     -0.2805     -0.2805     -0.2805     -0.2805     -0.2805     -0.2805     -0.2805     -0.2805    
  23   0.1112      0.1112      0.1112      0.1112      0.1112      0.1112      0.1112      0.1112      0.1112      0.1112    
  24   0.3069      0.3069      0.3069      0.3069      0.3069      0.3069      0.3069      0.3069      0.3069      0.3069    
1
  HEAD IN LAYER   5 AT END OF TIME STEP   1 IN STRESS PERIOD    1
  ---------------------------------------------------------------------------

            1           2           3           4           5           6           7           8           9          10
 ........................................................................................................................
   1   -16.96      -16.96      -16.96      -16.96      -16.96      -16.96      -16.96      -16.96      -16.96      -16.96    
   2   -17.18      -17.18      -17.18      -17.18      -17.18      -17.18      -17.18      -17.18      -17.18      -17.18    
   3   -17.61      -17.61      -17.61      -17.61      -17.61      -17.61      -17.61      -17.61      -17.61      -17.61    
   4   -18.26      -18.26      -18.26      -18.26      -18.26      -18.26      -18.26      -18.26      -18.26      -18.26    
   5   -19.14      -19.14      -19.14      -19.14      -19.14      -19.14      -19.14      -19.14      -19.14      -19.14    
   6   -20.24      -20.24      -20.24      -20.24      -20.24      -20.24      -20.24      -20.24      -20.24      -20.24    
   7   -21.58      -21.58      -21.58      -21.58      -21.58      -21.58      -21.58      -21.58      -21.58      -21.58    
   8   -23.15      -23.15      -23.15      -23.15      -23.15      -23.15      -23.15      -23.15      -23.15      -23.15    
   9   -24.94      -24.94      -24.94      -24.94      -24.94      -24.94      -24.94      -24.94      -24.94      -24.94    
  10   -21.58      -21.58      -21.58      -21.58      -21.58      -21.58      -21.58      -21.58      -21.58      -21.58    
  11   -18.48      -18.48      -18.48      -18.48      -18.48      -18.48      -18.48      -18.48      -18.48      -18.48    
  12   -15.66      -15.66      -15.66      -15.66      -15.66      -15.66      -15.66      -15.66      -15.66      -15.66    
  13   -13.10      -13.10      -13.10      -13.10      -13.10      -13.10      -13.10      -13.10      -13.10      -13.10    
  14   -10.79      -10.79      -10.79      -10.79      -10.79      -10.79      -10.79      -10.79      -10.79      -10.79    
  15   -8.717      -8.717      -8.717      -8.717      -8.717      -8.717      -8.717      -8.717      -8.717      -8.717    
  16   -6.874      -6.874      -6.874      -6.874      -6.874      -6.874      -6.874      -6.874      -6.874      -6.874    
  17   -5.252      -5.252      -5.252      -5.252      -5.252      -5.252      -5.252      -5.252      -5.252      -5.252    
  18   -3.845      -3.845      -3.845      -3.845      -3.845      -3.845      -3.845      -3.845      -3.845      -3.845    
  19   -2.649      -2.649      -2.649      -2.649      -2.649      -2.649      -2.649      -2.649      -2.649      -2.649    
  20   -1.658      -1.658      -1.658      -1.658      -1.658      -1.658      -1.658      -1.658      -1.658      -1.658    
  21  -0.8697     -0.8697     -0.8697     -0.8697     -0.8697     -0.8697     -0.8697     -0.8697     -0.8697     -0.8697    
  22  -0.2806     -0.2806     -0.2806     -0.2806     -0.2806     -0.2806     -0.2806     -0.2806     -0.2806     -0.2806    
  23   0.1111      0.1111      0.1111      0.1111      0.1111      0.1111      0.1111      0.1111      0.1111      0.1111    
  24   0.3068      0.3068      0.3068      0.3068      0.3068      0.3068      0.3068      0.3068      0.3068      0.3068    

 HEAD WILL BE SAVED ON UNIT 1015 AT END OF TIME STEP    1, STRESS PERIOD    1


  VOLUME BUDGET FOR ENTIRE MODEL AT END OF TIME STEP    1, STRESS PERIOD   1
  ---------------------------------------------------------------------------------------------------

     CUMULATIVE VOLUME      L**3       RATES FOR THIS TIME STEP      L**3/T          PACKAGE NAME    
     ------------------                 ------------------------                     ----------------

           IN:                                      IN:
           ---                                      ---
                 WEL =           0.0000                   WEL =           0.0000     WEL_0                            
                RCHA =    57500000.0000                  RCHA =    57500000.0000     RCHA_0                           
                 CHD =           0.0000                   CHD =           0.0000     CHD_0                            

            TOTAL IN =    57500000.0000              TOTAL IN =    57500000.0000

          OUT:                                     OUT:
          ----                                     ----
                 WEL =           6.0000                   WEL =           6.0000     WEL_0                            
                RCHA =           0.0000                  RCHA =           0.0000     RCHA_0                           
                 CHD =    57499993.8992                   CHD =    57499993.8992     CHD_0                            

           TOTAL OUT =    57499999.8992             TOTAL OUT =    57499999.8992

            IN - OUT =           0.1008              IN - OUT =           0.1008

 PERCENT DISCREPANCY =           0.00     PERCENT DISCREPANCY =           0.00




         TIME SUMMARY AT END OF TIME STEP    1 IN STRESS PERIOD    1
                    SECONDS     MINUTES      HOURS       DAYS        YEARS
                    -----------------------------------------------------------
   TIME STEP LENGTH 3.15576E+07 5.25960E+05  8766.0      365.25      1.0000    
 STRESS PERIOD TIME 3.15576E+07 5.25960E+05  8766.0      365.25      1.0000    
         TOTAL TIME 3.15576E+07 5.25960E+05  8766.0      365.25      1.0000    


end timestep

